 &PACKAGES
 useMNC=.FALSE.,
 useDiagnostics=.TRUE.,
 useEXF=.TRUE.,
 useCAL=.TRUE.,
 /
