 &PACKAGES
 useMNC=.FALSE.,
 useDiagnostics=.TRUE.,
 useEXF=.FALSE.,
 useCAL=.TRUE.,
 /
