 &RBCS_PARM01
 useRBCuVel=.FALSE.,
 useRBCvVel=.TRUE.,
 useRBCtemp=.FALSE.,
 tauRelaxV=1.,
 tauRelaxU=1.,
 tauRelaxT=1.,
 relaxMaskUFile='./input/gammaU.data'
 relaxUFile='./input/UVEL.data',
 relaxMaskVFile='./input/gammaV.data',
 relaxVFile='./input/VVEL.data',
 relaxMaskFile='./input/gammaT.data'
 relaxTFile='./input/T_init.data'
 /

# Periodic parameters
 &RBCS_PARM02
 /
 
